data_global
_chemical_name_common           'API_example'
_cell_length_a                  7.891
_cell_length_b                  11.432
_cell_length_c                  13.224
_cell_angle_alpha               90
_cell_angle_beta                90
_cell_angle_gamma               90
_symmetry_space_group_name_H-M  'P 21 21 21'

loop_
_atom_site_label
_atom_site_type_symbol
_atom_site_fract_x
_atom_site_fract_y
_atom_site_fract_z
C1  C  0.1234  0.2451  0.5344
C2  C  0.2567  0.1988  0.6021
O1  O  0.3345  0.1523  0.5522
N1  N  0.1987  0.3312  0.5879
H1  H  0.1044  0.3011  0.4821
H2  H  0.3047  0.2899  0.6440
